1
n
1
pstobj_coarse.in
uma4_coarse.res
sconc_coarse.arr
MT3D001_coarse.ucn
MT3D002_coarse.ucn
OPTDEMO_coarse.ufh
test1.out
