LIST   26 "mytestcase2.out"
BAS    1 "mytestcase2.bas"
BCF   11 "mytestcase2.bcf"
OC   10 "mytestcase2.oc"
DATA(BINARY)  30 "mytestcase2.hed"
DATA(BINARY)  35 "mytestcase2.drw"
PCG   12 "mytestcase2.pcg"
WEL   13 "mytestcase2.wel"
RCH   20 "mytestcase2.rch"
MT3D   29 "mytestcase2.hff"
