1
n
1
pstobj_fine.in
uma4.res
sconc_fine.arr
MT3D001_fine.ucn
MT3D002_fine.ucn
Optdemo.ufh
test1.out