LIST   26 "mytestcase.out"
BAS    1 "mytestcase.bas"
BCF   11 "mytestcase.bcf"
OC   10 "mytestcase.oc"
DATA(BINARY)  30 "mytestcase.hed"
DATA(BINARY)  35 "mytestcase.drw"
PCG   12 "mytestcase.pcg"
WEL   13 "mytestcase.wel"
RCH   20 "mytestcase.rch"
MT3D   29 "mytestcase.hff"
