MT3DSUP
BTN "mytestcase2.btn"
FLO "mytestcase.hff"
ADV "mytestcase2.adv"
DSP "mytestcase2.dsp"
SSM "mytestcase2.ssm"
RCT "mytestcase2.rct"
GCG "mytestcase2.gcg"
CHK Y
OUT "mytestcase2.out"
DSS "mytestcase2.dss"
SPC "RDX" 1 1
SPC "TNT" 2 1
ORIG    0.000000000000000e+000 0.000000000000000e+000 0.000000000000000e+000
ROTZ 0
STRSS 0
LAYER   1
    534.9750     534.9750     534.9750     534.9750     534.9750 
DMAT 1
MTE 1 0 0
MTHK 1 1 0
MPOR 1 1 0
MLD 1 1 0
HTOPEQ1 1
UNITS "ft"	"yr"	"kg"	"lb"	"ppb"
