PROJECT
MODFLOW	"mytestcase.mfs"
MT3D	"mytestcase2.mts"
MAP		"umatilla.map"
DATA	"umatilla3g.dat"
STNGS	"umatilla.ini"
