#
# MT3DMS 4.0 Name file
#

# Standard output file
LIST  0 optdemo_coarse.out

# Transport package input files
BTN   0 optdemo_coarse.btn
ADV   0 optdemo_coarse.adv
DSP   0 optdemo_coarse.dsp
SSM   0 optdemo_coarse.ssm
RCT   0 optdemo_coarse.rct
GCG   0 optdemo_coarse.gcg

# Flow-Transport Link input file
FTL   0 optdemo_coarse.ftl

# Uncomment the following lines to override
# the default names of optional MT3DMS output files
# mt3d001.ucn, mt3d001.obs, mt3d001.mas, mt3d.cnf.
# The unit numbers for these files are preset in the
# MT3DMS code.

# data(binary) 201 species1.ucn
# data         401 species1.obs
# data         601 species1.mas
# data         17  model_a.cnf
